Version 4
SHEET 1 880 680
WIRE 304 0 192 0
WIRE 96 16 0 16
WIRE 0 48 0 16
WIRE 192 96 192 0
WIRE 96 112 96 16
WIRE 160 112 96 112
WIRE 336 128 288 128
WIRE 448 128 336 128
WIRE 160 144 128 144
WIRE 128 192 128 144
WIRE 288 192 288 128
WIRE 288 192 128 192
WIRE 192 208 192 160
FLAG 0 128 0
FLAG 336 192 0
FLAG 336 128 Vout
FLAG 192 288 0
FLAG 304 80 0
FLAG 448 208 0
SYMBOL OpAmps\\OP482 192 192 M180
WINDOW 0 -64 65 Left 2
WINDOW 3 -34 118 Left 2
SYMATTR InstName U1
SYMBOL diode 224 144 R270
WINDOW 0 32 32 VTop 2
WINDOW 3 1 37 VBottom 2
SYMATTR InstName D1
SYMATTR Value 1N914
SYMBOL voltage 0 32 R0
WINDOW 3 -48 -31 VRight 2
WINDOW 123 0 0 Left 0
WINDOW 39 0 0 Left 0
SYMATTR InstName V1
SYMATTR Value SINE(0 2 1k)
SYMBOL cap 320 128 R0
WINDOW 0 45 33 Left 2
WINDOW 3 37 54 Left 2
SYMATTR InstName C1
SYMATTR Value 10µF
SYMBOL voltage 192 192 R0
SYMATTR InstName V2
SYMATTR Value 12
SYMBOL voltage 304 -16 R0
SYMATTR InstName V3
SYMATTR Value -12
SYMBOL res 432 112 R0
WINDOW 0 35 47 Left 2
SYMATTR InstName Rload
SYMATTR Value 10k
TEXT -56 312 Left 2 !.tran 100ms
