Version 4
SHEET 1 880 680
WIRE 144 80 32 80
WIRE 272 80 208 80
WIRE 384 80 272 80
WIRE 32 112 32 80
WIRE 272 112 272 80
WIRE 384 112 384 80
WIRE 32 224 32 192
WIRE 144 224 32 224
WIRE 272 224 272 176
WIRE 272 224 144 224
WIRE 384 224 384 192
WIRE 384 224 272 224
WIRE 144 240 144 224
FLAG 144 240 0
SYMBOL voltage 32 96 R0
WINDOW 123 0 0 Left 0
WINDOW 39 0 0 Left 0
SYMATTR InstName V1
SYMATTR Value SINE(0 5 1KHz)
SYMBOL cap 256 112 R0
SYMATTR InstName C1
SYMATTR Value 0.1µF
SYMBOL res 368 96 R0
SYMATTR InstName R2
SYMATTR Value 1000K
SYMBOL diode 144 96 R270
WINDOW 0 32 32 VTop 2
WINDOW 3 0 32 VBottom 2
SYMATTR InstName D1
TEXT 0 264 Left 2 !.tran 0 1s 0
TEXT 32 -16 Left 2 ;Very Simple Peak Detector
